data_image0
_chemical_formula_structural       I36Pb8C7N7H43OH2OH2OH2OH2OH2OH2OH2OH2OH2OH2OH2OH2OH2OH2OH2OH2OH2OH2OH2OH2OH2OH2OH2OH2OH2OH2OH2OH2OH2OH2OH2OH2OH2OH2OH2OH2OH2OH2OH2OH2OH2OH2OH2OH2OH2OH2OH2OH2OH2OH2OH2OH2OH2OH2OH2OH2OH2OH2OH2OH2OH2OH2OH2OH2OH2OH2OH2OH2OH2OH2OH2OH2OH2OH2OH2OH2OH2OH2OH2OH2OH2OH2OH2OH2OH2OH2OH2OH2OH2OH2OH2OH2OH2OH2OH2OH2OH2OH2OH2OH2OH2OH2OH2OH2OH2OH2OH2OH2OH2OH2OH2OH2OH2OH2OH2OH2OH2OH2OH2OH2OH2OH2OH2OH2OH2OH2OH2OH2OH2OH2OH2OH2OH2OH2OH2OH2OH2OH2OH2OH2OH2OH2OH2OH2OH2OH2OH2OH2OH2OH2OH2OH2OH2OH2OH2OH
_chemical_formula_sum              "I36 Pb8 C7 N7 H354 O156"
_cell_length_a       31.79
_cell_length_b       31.09
_cell_length_c       30.39
_cell_angle_alpha    90
_cell_angle_beta     90
_cell_angle_gamma    90

_space_group_name_H-M_alt    "P 1"
_space_group_IT_number       1

loop_
  _space_group_symop_operation_xyz
  'x, y, z'

loop_
  _atom_site_type_symbol
  _atom_site_label
  _atom_site_symmetry_multiplicity
  _atom_site_fract_x
  _atom_site_fract_y
  _atom_site_fract_z
  _atom_site_occupancy
  I   I1        1.0  0.37894  0.38826  0.28650  1.0000
  I   I2        1.0  0.57699  0.38826  0.28650  1.0000
  I   I3        1.0  0.37894  0.58923  0.28650  1.0000
  I   I4        1.0  0.57699  0.58923  0.28650  1.0000
  I   I5        1.0  0.38200  0.28778  0.39994  1.0000
  I   I6        1.0  0.58005  0.28778  0.39994  1.0000
  I   I7        1.0  0.28690  0.38826  0.38225  1.0000
  I   I8        1.0  0.38366  0.38826  0.49570  1.0000
  I   I9        1.0  0.38200  0.48875  0.39994  1.0000
  I   I10       1.0  0.48496  0.38826  0.38225  1.0000
  I   I11       1.0  0.58172  0.38826  0.49570  1.0000
  I   I12       1.0  0.58005  0.48875  0.39994  1.0000
  I   I13       1.0  0.68302  0.38826  0.38225  1.0000
  I   I14       1.0  0.28690  0.58923  0.38225  1.0000
  I   I15       1.0  0.38366  0.58923  0.49570  1.0000
  I   I16       1.0  0.38200  0.68971  0.39994  1.0000
  I   I17       1.0  0.48496  0.58923  0.38225  1.0000
  I   I18       1.0  0.58172  0.58923  0.49570  1.0000
  I   I19       1.0  0.58005  0.68971  0.39994  1.0000
  I   I20       1.0  0.68302  0.58923  0.38225  1.0000
  I   I21       1.0  0.38672  0.28778  0.60914  1.0000
  I   I22       1.0  0.58477  0.28778  0.60914  1.0000
  I   I23       1.0  0.29162  0.38826  0.59145  1.0000
  I   I24       1.0  0.38838  0.38826  0.70491  1.0000
  I   I25       1.0  0.38672  0.48875  0.60914  1.0000
  I   I26       1.0  0.48968  0.38826  0.59145  1.0000
  I   I27       1.0  0.58644  0.38826  0.70491  1.0000
  I   I28       1.0  0.58478  0.48875  0.60914  1.0000
  I   I29       1.0  0.68774  0.38826  0.59145  1.0000
  I   I30       1.0  0.29162  0.58923  0.59145  1.0000
  I   I31       1.0  0.38838  0.58923  0.70491  1.0000
  I   I32       1.0  0.38672  0.68971  0.60914  1.0000
  I   I33       1.0  0.48968  0.58923  0.59145  1.0000
  I   I34       1.0  0.58644  0.58923  0.70491  1.0000
  I   I35       1.0  0.58478  0.68971  0.60914  1.0000
  I   I36       1.0  0.68774  0.58923  0.59145  1.0000
  Pb  Pb1       1.0  0.38797  0.38826  0.39148  1.0000
  Pb  Pb2       1.0  0.58602  0.38826  0.39148  1.0000
  Pb  Pb3       1.0  0.38797  0.58923  0.39148  1.0000
  Pb  Pb4       1.0  0.58602  0.58923  0.39148  1.0000
  Pb  Pb5       1.0  0.39269  0.38826  0.60069  1.0000
  Pb  Pb6       1.0  0.59075  0.38826  0.60069  1.0000
  Pb  Pb7       1.0  0.39269  0.58923  0.60069  1.0000
  Pb  Pb8       1.0  0.59075  0.58923  0.60069  1.0000
  C   C1        1.0  0.47358  0.48875  0.28175  1.0000
  C   C2        1.0  0.47830  0.28778  0.49095  1.0000
  C   C3        1.0  0.28025  0.48875  0.49095  1.0000
  C   C4        1.0  0.47830  0.48875  0.49095  1.0000
  C   C5        1.0  0.67637  0.48875  0.49095  1.0000
  C   C6        1.0  0.47830  0.68971  0.49095  1.0000
  C   C7        1.0  0.48303  0.48874  0.70015  1.0000
  N   N1        1.0  0.51650  0.48875  0.30166  1.0000
  N   N2        1.0  0.52122  0.28778  0.51087  1.0000
  N   N3        1.0  0.32316  0.48875  0.51087  1.0000
  N   N4        1.0  0.52122  0.48875  0.51087  1.0000
  N   N5        1.0  0.71928  0.48875  0.51087  1.0000
  N   N6        1.0  0.52122  0.68971  0.51087  1.0000
  N   N7        1.0  0.52594  0.48874  0.72007  1.0000
  H   H1        1.0  0.47681  0.48875  0.24589  1.0000
  H   H2        1.0  0.45693  0.51768  0.29262  1.0000
  H   H3        1.0  0.45693  0.45981  0.29262  1.0000
  H   H4        1.0  0.53362  0.51580  0.29238  1.0000
  H   H5        1.0  0.53363  0.46170  0.29238  1.0000
  H   H6        1.0  0.51585  0.48875  0.33571  1.0000
  H   H7        1.0  0.48154  0.28778  0.45510  1.0000
  H   H8        1.0  0.46165  0.31672  0.50182  1.0000
  H   H9        1.0  0.46165  0.25884  0.50182  1.0000
  H   H10       1.0  0.53834  0.31483  0.50158  1.0000
  H   H11       1.0  0.53835  0.26073  0.50158  1.0000
  H   H12       1.0  0.52057  0.28778  0.54491  1.0000
  H   H13       1.0  0.28347  0.48875  0.45510  1.0000
  H   H14       1.0  0.26359  0.51768  0.50182  1.0000
  H   H15       1.0  0.26359  0.45981  0.50182  1.0000
  H   H16       1.0  0.34029  0.51580  0.50158  1.0000
  H   H17       1.0  0.34029  0.46170  0.50158  1.0000
  H   H18       1.0  0.32251  0.48875  0.54491  1.0000
  H   H19       1.0  0.48154  0.48875  0.45510  1.0000
  H   H20       1.0  0.46165  0.51768  0.50182  1.0000
  H   H21       1.0  0.46165  0.45981  0.50182  1.0000
  H   H22       1.0  0.53834  0.51580  0.50158  1.0000
  H   H23       1.0  0.53835  0.46170  0.50158  1.0000
  H   H24       1.0  0.52057  0.48875  0.54491  1.0000
  H   H25       1.0  0.67959  0.48875  0.45510  1.0000
  H   H26       1.0  0.65971  0.51768  0.50182  1.0000
  H   H27       1.0  0.65971  0.45981  0.50182  1.0000
  H   H28       1.0  0.73641  0.51580  0.50158  1.0000
  H   H29       1.0  0.73641  0.46170  0.50158  1.0000
  H   H30       1.0  0.71863  0.48875  0.54491  1.0000
  H   H31       1.0  0.48154  0.68971  0.45510  1.0000
  H   H32       1.0  0.46165  0.71864  0.50182  1.0000
  H   H33       1.0  0.46165  0.66077  0.50182  1.0000
  H   H34       1.0  0.53834  0.71676  0.50158  1.0000
  H   H35       1.0  0.53835  0.66266  0.50158  1.0000
  H   H36       1.0  0.52057  0.68971  0.54491  1.0000
  H   H37       1.0  0.48626  0.48874  0.66430  1.0000
  H   H38       1.0  0.46637  0.51768  0.71102  1.0000
  H   H39       1.0  0.46637  0.45981  0.71102  1.0000
  H   H40       1.0  0.54306  0.51580  0.71079  1.0000
  H   H41       1.0  0.54307  0.46170  0.71079  1.0000
  H   H42       1.0  0.52529  0.48874  0.75411  1.0000
  H   H43       1.0  0.17301  0.37761  0.36328  1.0000
  O   O1        1.0  0.19503  0.35510  0.36328  1.0000
  H   H44       1.0  0.21705  0.37761  0.36328  1.0000
  H   H45       1.0  0.17301  0.37761  0.45443  1.0000
  O   O2        1.0  0.19503  0.35510  0.45443  1.0000
  H   H46       1.0  0.21705  0.37761  0.45443  1.0000
  H   H47       1.0  0.17301  0.37761  0.54557  1.0000
  O   O3        1.0  0.19503  0.35510  0.54557  1.0000
  H   H48       1.0  0.21705  0.37761  0.54557  1.0000
  H   H49       1.0  0.17301  0.37761  0.63672  1.0000
  O   O4        1.0  0.19503  0.35510  0.63672  1.0000
  H   H50       1.0  0.21705  0.37761  0.63672  1.0000
  H   H51       1.0  0.17301  0.46671  0.36328  1.0000
  O   O5        1.0  0.19503  0.44419  0.36328  1.0000
  H   H52       1.0  0.21705  0.46671  0.36328  1.0000
  H   H53       1.0  0.17301  0.46671  0.45443  1.0000
  O   O6        1.0  0.19503  0.44419  0.45443  1.0000
  H   H54       1.0  0.21705  0.46671  0.45443  1.0000
  H   H55       1.0  0.17301  0.46671  0.54557  1.0000
  O   O7        1.0  0.19503  0.44419  0.54557  1.0000
  H   H56       1.0  0.21705  0.46671  0.54557  1.0000
  H   H57       1.0  0.17301  0.46671  0.63672  1.0000
  O   O8        1.0  0.19503  0.44419  0.63672  1.0000
  H   H58       1.0  0.21705  0.46671  0.63672  1.0000
  H   H59       1.0  0.17301  0.55581  0.36328  1.0000
  O   O9        1.0  0.19503  0.53329  0.36328  1.0000
  H   H60       1.0  0.21705  0.55581  0.36328  1.0000
  H   H61       1.0  0.17301  0.55581  0.45443  1.0000
  O   O10       1.0  0.19503  0.53329  0.45443  1.0000
  H   H62       1.0  0.21705  0.55581  0.45443  1.0000
  H   H63       1.0  0.17301  0.55581  0.54557  1.0000
  O   O11       1.0  0.19503  0.53329  0.54557  1.0000
  H   H64       1.0  0.21705  0.55581  0.54557  1.0000
  H   H65       1.0  0.17301  0.55581  0.63672  1.0000
  O   O12       1.0  0.19503  0.53329  0.63672  1.0000
  H   H66       1.0  0.21705  0.55581  0.63672  1.0000
  H   H67       1.0  0.17301  0.64490  0.36328  1.0000
  O   O13       1.0  0.19503  0.62239  0.36328  1.0000
  H   H68       1.0  0.21705  0.64490  0.36328  1.0000
  H   H69       1.0  0.17301  0.64490  0.45443  1.0000
  O   O14       1.0  0.19503  0.62239  0.45443  1.0000
  H   H70       1.0  0.21705  0.64490  0.45443  1.0000
  H   H71       1.0  0.17301  0.64490  0.54557  1.0000
  O   O15       1.0  0.19503  0.62239  0.54557  1.0000
  H   H72       1.0  0.21705  0.64490  0.54557  1.0000
  H   H73       1.0  0.17301  0.64490  0.63672  1.0000
  O   O16       1.0  0.19503  0.62239  0.63672  1.0000
  H   H74       1.0  0.21705  0.64490  0.63672  1.0000
  H   H75       1.0  0.26014  0.28852  0.27213  1.0000
  O   O17       1.0  0.28216  0.26600  0.27213  1.0000
  H   H76       1.0  0.30418  0.28852  0.27213  1.0000
  H   H77       1.0  0.26014  0.28852  0.36328  1.0000
  O   O18       1.0  0.28216  0.26600  0.36328  1.0000
  H   H78       1.0  0.30418  0.28852  0.36328  1.0000
  H   H79       1.0  0.26014  0.28852  0.45443  1.0000
  O   O19       1.0  0.28216  0.26600  0.45443  1.0000
  H   H80       1.0  0.30418  0.28852  0.45443  1.0000
  H   H81       1.0  0.26014  0.28852  0.54557  1.0000
  O   O20       1.0  0.28216  0.26600  0.54557  1.0000
  H   H82       1.0  0.30418  0.28852  0.54557  1.0000
  H   H83       1.0  0.26014  0.28852  0.63672  1.0000
  O   O21       1.0  0.28216  0.26600  0.63672  1.0000
  H   H84       1.0  0.30418  0.28852  0.63672  1.0000
  H   H85       1.0  0.26014  0.28852  0.72787  1.0000
  O   O22       1.0  0.28216  0.26600  0.72787  1.0000
  H   H86       1.0  0.30418  0.28852  0.72787  1.0000
  H   H87       1.0  0.26014  0.37761  0.27213  1.0000
  O   O23       1.0  0.28216  0.35510  0.27213  1.0000
  H   H88       1.0  0.30418  0.37761  0.27213  1.0000
  H   H89       1.0  0.26014  0.37761  0.72787  1.0000
  O   O24       1.0  0.28216  0.35510  0.72787  1.0000
  H   H90       1.0  0.30418  0.37761  0.72787  1.0000
  H   H91       1.0  0.26014  0.46671  0.27213  1.0000
  O   O25       1.0  0.28216  0.44419  0.27213  1.0000
  H   H92       1.0  0.30418  0.46671  0.27213  1.0000
  H   H93       1.0  0.26014  0.46671  0.72787  1.0000
  O   O26       1.0  0.28216  0.44419  0.72787  1.0000
  H   H94       1.0  0.30418  0.46671  0.72787  1.0000
  H   H95       1.0  0.26014  0.55581  0.27213  1.0000
  O   O27       1.0  0.28216  0.53329  0.27213  1.0000
  H   H96       1.0  0.30418  0.55581  0.27213  1.0000
  H   H97       1.0  0.26014  0.55581  0.72787  1.0000
  O   O28       1.0  0.28216  0.53329  0.72787  1.0000
  H   H98       1.0  0.30418  0.55581  0.72787  1.0000
  H   H99       1.0  0.26014  0.64490  0.27213  1.0000
  O   O29       1.0  0.28216  0.62239  0.27213  1.0000
  H   H100      1.0  0.30418  0.64490  0.27213  1.0000
  H   H101      1.0  0.26014  0.64490  0.72787  1.0000
  O   O30       1.0  0.28216  0.62239  0.72787  1.0000
  H   H102      1.0  0.30418  0.64490  0.72787  1.0000
  H   H103      1.0  0.26014  0.73400  0.27213  1.0000
  O   O31       1.0  0.28216  0.71148  0.27213  1.0000
  H   H104      1.0  0.30418  0.73400  0.27213  1.0000
  H   H105      1.0  0.26014  0.73400  0.36328  1.0000
  O   O32       1.0  0.28216  0.71148  0.36328  1.0000
  H   H106      1.0  0.30418  0.73400  0.36328  1.0000
  H   H107      1.0  0.26014  0.73400  0.45443  1.0000
  O   O33       1.0  0.28216  0.71148  0.45443  1.0000
  H   H108      1.0  0.30418  0.73400  0.45443  1.0000
  H   H109      1.0  0.26014  0.73400  0.54557  1.0000
  O   O34       1.0  0.28216  0.71148  0.54557  1.0000
  H   H110      1.0  0.30418  0.73400  0.54557  1.0000
  H   H111      1.0  0.26014  0.73400  0.63672  1.0000
  O   O35       1.0  0.28216  0.71148  0.63672  1.0000
  H   H112      1.0  0.30418  0.73400  0.63672  1.0000
  H   H113      1.0  0.26014  0.73400  0.72787  1.0000
  O   O36       1.0  0.28216  0.71148  0.72787  1.0000
  H   H114      1.0  0.30418  0.73400  0.72787  1.0000
  H   H115      1.0  0.34728  0.19942  0.36328  1.0000
  O   O37       1.0  0.36930  0.17691  0.36328  1.0000
  H   H116      1.0  0.39132  0.19942  0.36328  1.0000
  H   H117      1.0  0.34728  0.19942  0.45443  1.0000
  O   O38       1.0  0.36930  0.17691  0.45443  1.0000
  H   H118      1.0  0.39132  0.19942  0.45443  1.0000
  H   H119      1.0  0.34728  0.19942  0.54557  1.0000
  O   O39       1.0  0.36930  0.17691  0.54557  1.0000
  H   H120      1.0  0.39132  0.19942  0.54557  1.0000
  H   H121      1.0  0.34728  0.19942  0.63672  1.0000
  O   O40       1.0  0.36930  0.17691  0.63672  1.0000
  H   H122      1.0  0.39132  0.19942  0.63672  1.0000
  H   H123      1.0  0.34728  0.28852  0.27213  1.0000
  O   O41       1.0  0.36930  0.26600  0.27213  1.0000
  H   H124      1.0  0.39132  0.28852  0.27213  1.0000
  H   H125      1.0  0.34728  0.28852  0.72787  1.0000
  O   O42       1.0  0.36930  0.26600  0.72787  1.0000
  H   H126      1.0  0.39132  0.28852  0.72787  1.0000
  H   H127      1.0  0.34728  0.37761  0.18098  1.0000
  O   O43       1.0  0.36930  0.35510  0.18098  1.0000
  H   H128      1.0  0.39132  0.37761  0.18098  1.0000
  H   H129      1.0  0.34728  0.37761  0.81902  1.0000
  O   O44       1.0  0.36930  0.35510  0.81902  1.0000
  H   H130      1.0  0.39132  0.37761  0.81902  1.0000
  H   H131      1.0  0.34728  0.46671  0.18098  1.0000
  O   O45       1.0  0.36930  0.44419  0.18098  1.0000
  H   H132      1.0  0.39132  0.46671  0.18098  1.0000
  H   H133      1.0  0.34728  0.46671  0.81902  1.0000
  O   O46       1.0  0.36930  0.44419  0.81902  1.0000
  H   H134      1.0  0.39132  0.46671  0.81902  1.0000
  H   H135      1.0  0.34728  0.55581  0.18098  1.0000
  O   O47       1.0  0.36930  0.53329  0.18098  1.0000
  H   H136      1.0  0.39132  0.55581  0.18098  1.0000
  H   H137      1.0  0.34728  0.55581  0.81902  1.0000
  O   O48       1.0  0.36930  0.53329  0.81902  1.0000
  H   H138      1.0  0.39132  0.55581  0.81902  1.0000
  H   H139      1.0  0.34728  0.64490  0.18098  1.0000
  O   O49       1.0  0.36930  0.62239  0.18098  1.0000
  H   H140      1.0  0.39132  0.64490  0.18098  1.0000
  H   H141      1.0  0.34728  0.64490  0.81902  1.0000
  O   O50       1.0  0.36930  0.62239  0.81902  1.0000
  H   H142      1.0  0.39132  0.64490  0.81902  1.0000
  H   H143      1.0  0.34728  0.73400  0.27213  1.0000
  O   O51       1.0  0.36930  0.71148  0.27213  1.0000
  H   H144      1.0  0.39132  0.73400  0.27213  1.0000
  H   H145      1.0  0.34728  0.73400  0.72787  1.0000
  O   O52       1.0  0.36930  0.71148  0.72787  1.0000
  H   H146      1.0  0.39132  0.73400  0.72787  1.0000
  H   H147      1.0  0.34728  0.82309  0.36328  1.0000
  O   O53       1.0  0.36930  0.80058  0.36328  1.0000
  H   H148      1.0  0.39132  0.82309  0.36328  1.0000
  H   H149      1.0  0.34728  0.82309  0.45443  1.0000
  O   O54       1.0  0.36930  0.80058  0.45443  1.0000
  H   H150      1.0  0.39132  0.82309  0.45443  1.0000
  H   H151      1.0  0.34728  0.82309  0.54557  1.0000
  O   O55       1.0  0.36930  0.80058  0.54557  1.0000
  H   H152      1.0  0.39132  0.82309  0.54557  1.0000
  H   H153      1.0  0.34728  0.82309  0.63672  1.0000
  O   O56       1.0  0.36930  0.80058  0.63672  1.0000
  H   H154      1.0  0.39132  0.82309  0.63672  1.0000
  H   H155      1.0  0.43441  0.19942  0.36328  1.0000
  O   O57       1.0  0.45643  0.17691  0.36328  1.0000
  H   H156      1.0  0.47845  0.19942  0.36328  1.0000
  H   H157      1.0  0.43441  0.19942  0.45443  1.0000
  O   O58       1.0  0.45643  0.17691  0.45443  1.0000
  H   H158      1.0  0.47845  0.19942  0.45443  1.0000
  H   H159      1.0  0.43441  0.19942  0.54557  1.0000
  O   O59       1.0  0.45643  0.17691  0.54557  1.0000
  H   H160      1.0  0.47845  0.19942  0.54557  1.0000
  H   H161      1.0  0.43441  0.19942  0.63672  1.0000
  O   O60       1.0  0.45643  0.17691  0.63672  1.0000
  H   H162      1.0  0.47845  0.19942  0.63672  1.0000
  H   H163      1.0  0.43441  0.28852  0.27213  1.0000
  O   O61       1.0  0.45643  0.26600  0.27213  1.0000
  H   H164      1.0  0.47845  0.28852  0.27213  1.0000
  H   H165      1.0  0.43441  0.28852  0.36328  1.0000
  O   O62       1.0  0.45643  0.26600  0.36328  1.0000
  H   H166      1.0  0.47845  0.28852  0.36328  1.0000
  H   H167      1.0  0.43441  0.28852  0.72787  1.0000
  O   O63       1.0  0.45643  0.26600  0.72787  1.0000
  H   H168      1.0  0.47845  0.28852  0.72787  1.0000
  H   H169      1.0  0.43441  0.37761  0.18098  1.0000
  O   O64       1.0  0.45643  0.35510  0.18098  1.0000
  H   H170      1.0  0.47845  0.37761  0.18098  1.0000
  H   H171      1.0  0.43441  0.37761  0.27213  1.0000
  O   O65       1.0  0.45643  0.35510  0.27213  1.0000
  H   H172      1.0  0.47845  0.37761  0.27213  1.0000
  H   H173      1.0  0.43441  0.37761  0.81902  1.0000
  O   O66       1.0  0.45643  0.35510  0.81902  1.0000
  H   H174      1.0  0.47845  0.37761  0.81902  1.0000
  H   H175      1.0  0.43441  0.46671  0.81902  1.0000
  O   O67       1.0  0.45643  0.44419  0.81902  1.0000
  H   H176      1.0  0.47845  0.46671  0.81902  1.0000
  H   H177      1.0  0.43441  0.55581  0.81902  1.0000
  O   O68       1.0  0.45643  0.53329  0.81902  1.0000
  H   H178      1.0  0.47845  0.55581  0.81902  1.0000
  H   H179      1.0  0.43441  0.64490  0.18098  1.0000
  O   O69       1.0  0.45643  0.62239  0.18098  1.0000
  H   H180      1.0  0.47845  0.64490  0.18098  1.0000
  H   H181      1.0  0.43441  0.64490  0.27213  1.0000
  O   O70       1.0  0.45643  0.62239  0.27213  1.0000
  H   H182      1.0  0.47845  0.64490  0.27213  1.0000
  H   H183      1.0  0.43441  0.64490  0.81902  1.0000
  O   O71       1.0  0.45643  0.62239  0.81902  1.0000
  H   H184      1.0  0.47845  0.64490  0.81902  1.0000
  H   H185      1.0  0.43441  0.73400  0.27213  1.0000
  O   O72       1.0  0.45643  0.71148  0.27213  1.0000
  H   H186      1.0  0.47845  0.73400  0.27213  1.0000
  H   H187      1.0  0.43441  0.73400  0.36328  1.0000
  O   O73       1.0  0.45643  0.71148  0.36328  1.0000
  H   H188      1.0  0.47845  0.73400  0.36328  1.0000
  H   H189      1.0  0.43441  0.73400  0.72787  1.0000
  O   O74       1.0  0.45643  0.71148  0.72787  1.0000
  H   H190      1.0  0.47845  0.73400  0.72787  1.0000
  H   H191      1.0  0.43441  0.82309  0.36328  1.0000
  O   O75       1.0  0.45643  0.80058  0.36328  1.0000
  H   H192      1.0  0.47845  0.82309  0.36328  1.0000
  H   H193      1.0  0.43441  0.82309  0.45443  1.0000
  O   O76       1.0  0.45643  0.80058  0.45443  1.0000
  H   H194      1.0  0.47845  0.82309  0.45443  1.0000
  H   H195      1.0  0.43441  0.82309  0.54557  1.0000
  O   O77       1.0  0.45643  0.80058  0.54557  1.0000
  H   H196      1.0  0.47845  0.82309  0.54557  1.0000
  H   H197      1.0  0.43441  0.82309  0.63672  1.0000
  O   O78       1.0  0.45643  0.80058  0.63672  1.0000
  H   H198      1.0  0.47845  0.82309  0.63672  1.0000
  H   H199      1.0  0.52155  0.19942  0.36328  1.0000
  O   O79       1.0  0.54357  0.17691  0.36328  1.0000
  H   H200      1.0  0.56559  0.19942  0.36328  1.0000
  H   H201      1.0  0.52155  0.19942  0.45443  1.0000
  O   O80       1.0  0.54357  0.17691  0.45443  1.0000
  H   H202      1.0  0.56559  0.19942  0.45443  1.0000
  H   H203      1.0  0.52155  0.19942  0.54557  1.0000
  O   O81       1.0  0.54357  0.17691  0.54557  1.0000
  H   H204      1.0  0.56559  0.19942  0.54557  1.0000
  H   H205      1.0  0.52155  0.19942  0.63672  1.0000
  O   O82       1.0  0.54357  0.17691  0.63672  1.0000
  H   H206      1.0  0.56559  0.19942  0.63672  1.0000
  H   H207      1.0  0.52155  0.28852  0.27213  1.0000
  O   O83       1.0  0.54357  0.26600  0.27213  1.0000
  H   H208      1.0  0.56559  0.28852  0.27213  1.0000
  H   H209      1.0  0.52155  0.28852  0.72787  1.0000
  O   O84       1.0  0.54357  0.26600  0.72787  1.0000
  H   H210      1.0  0.56559  0.28852  0.72787  1.0000
  H   H211      1.0  0.52155  0.37761  0.18098  1.0000
  O   O85       1.0  0.54357  0.35510  0.18098  1.0000
  H   H212      1.0  0.56559  0.37761  0.18098  1.0000
  H   H213      1.0  0.52155  0.37761  0.81902  1.0000
  O   O86       1.0  0.54357  0.35510  0.81902  1.0000
  H   H214      1.0  0.56559  0.37761  0.81902  1.0000
  H   H215      1.0  0.52155  0.46671  0.18098  1.0000
  O   O87       1.0  0.54357  0.44419  0.18098  1.0000
  H   H216      1.0  0.56559  0.46671  0.18098  1.0000
  H   H217      1.0  0.52155  0.55581  0.18098  1.0000
  O   O88       1.0  0.54357  0.53329  0.18098  1.0000
  H   H218      1.0  0.56559  0.55581  0.18098  1.0000
  H   H219      1.0  0.52155  0.64490  0.18098  1.0000
  O   O89       1.0  0.54357  0.62239  0.18098  1.0000
  H   H220      1.0  0.56559  0.64490  0.18098  1.0000
  H   H221      1.0  0.52155  0.64490  0.81902  1.0000
  O   O90       1.0  0.54357  0.62239  0.81902  1.0000
  H   H222      1.0  0.56559  0.64490  0.81902  1.0000
  H   H223      1.0  0.52155  0.73400  0.27213  1.0000
  O   O91       1.0  0.54357  0.71148  0.27213  1.0000
  H   H224      1.0  0.56559  0.73400  0.27213  1.0000
  H   H225      1.0  0.52155  0.73400  0.72787  1.0000
  O   O92       1.0  0.54357  0.71148  0.72787  1.0000
  H   H226      1.0  0.56559  0.73400  0.72787  1.0000
  H   H227      1.0  0.52155  0.82309  0.36328  1.0000
  O   O93       1.0  0.54357  0.80058  0.36328  1.0000
  H   H228      1.0  0.56559  0.82309  0.36328  1.0000
  H   H229      1.0  0.52155  0.82309  0.45443  1.0000
  O   O94       1.0  0.54357  0.80058  0.45443  1.0000
  H   H230      1.0  0.56559  0.82309  0.45443  1.0000
  H   H231      1.0  0.52155  0.82309  0.54557  1.0000
  O   O95       1.0  0.54357  0.80058  0.54557  1.0000
  H   H232      1.0  0.56559  0.82309  0.54557  1.0000
  H   H233      1.0  0.52155  0.82309  0.63672  1.0000
  O   O96       1.0  0.54357  0.80058  0.63672  1.0000
  H   H234      1.0  0.56559  0.82309  0.63672  1.0000
  H   H235      1.0  0.60868  0.19942  0.36328  1.0000
  O   O97       1.0  0.63070  0.17691  0.36328  1.0000
  H   H236      1.0  0.65272  0.19942  0.36328  1.0000
  H   H237      1.0  0.60868  0.19942  0.45443  1.0000
  O   O98       1.0  0.63070  0.17691  0.45443  1.0000
  H   H238      1.0  0.65272  0.19942  0.45443  1.0000
  H   H239      1.0  0.60868  0.19942  0.54557  1.0000
  O   O99       1.0  0.63070  0.17691  0.54557  1.0000
  H   H240      1.0  0.65272  0.19942  0.54557  1.0000
  H   H241      1.0  0.60868  0.19942  0.63672  1.0000
  O   O100      1.0  0.63070  0.17691  0.63672  1.0000
  H   H242      1.0  0.65272  0.19942  0.63672  1.0000
  H   H243      1.0  0.60868  0.28852  0.27213  1.0000
  O   O101      1.0  0.63070  0.26600  0.27213  1.0000
  H   H244      1.0  0.65272  0.28852  0.27213  1.0000
  H   H245      1.0  0.60868  0.28852  0.54557  1.0000
  O   O102      1.0  0.63070  0.26600  0.54557  1.0000
  H   H246      1.0  0.65272  0.28852  0.54557  1.0000
  H   H247      1.0  0.60868  0.28852  0.72787  1.0000
  O   O103      1.0  0.63070  0.26600  0.72787  1.0000
  H   H248      1.0  0.65272  0.28852  0.72787  1.0000
  H   H249      1.0  0.60868  0.37761  0.18098  1.0000
  O   O104      1.0  0.63070  0.35510  0.18098  1.0000
  H   H250      1.0  0.65272  0.37761  0.18098  1.0000
  H   H251      1.0  0.60868  0.37761  0.81902  1.0000
  O   O105      1.0  0.63070  0.35510  0.81902  1.0000
  H   H252      1.0  0.65272  0.37761  0.81902  1.0000
  H   H253      1.0  0.60868  0.46671  0.18098  1.0000
  O   O106      1.0  0.63070  0.44419  0.18098  1.0000
  H   H254      1.0  0.65272  0.46671  0.18098  1.0000
  H   H255      1.0  0.60868  0.46671  0.81902  1.0000
  O   O107      1.0  0.63070  0.44419  0.81902  1.0000
  H   H256      1.0  0.65272  0.46671  0.81902  1.0000
  H   H257      1.0  0.60868  0.55581  0.18098  1.0000
  O   O108      1.0  0.63070  0.53329  0.18098  1.0000
  H   H258      1.0  0.65272  0.55581  0.18098  1.0000
  H   H259      1.0  0.60868  0.55581  0.81902  1.0000
  O   O109      1.0  0.63070  0.53329  0.81902  1.0000
  H   H260      1.0  0.65272  0.55581  0.81902  1.0000
  H   H261      1.0  0.60868  0.64490  0.18098  1.0000
  O   O110      1.0  0.63070  0.62239  0.18098  1.0000
  H   H262      1.0  0.65272  0.64490  0.18098  1.0000
  H   H263      1.0  0.60868  0.64490  0.81902  1.0000
  O   O111      1.0  0.63070  0.62239  0.81902  1.0000
  H   H264      1.0  0.65272  0.64490  0.81902  1.0000
  H   H265      1.0  0.60868  0.73400  0.27213  1.0000
  O   O112      1.0  0.63070  0.71148  0.27213  1.0000
  H   H266      1.0  0.65272  0.73400  0.27213  1.0000
  H   H267      1.0  0.60868  0.73400  0.54557  1.0000
  O   O113      1.0  0.63070  0.71148  0.54557  1.0000
  H   H268      1.0  0.65272  0.73400  0.54557  1.0000
  H   H269      1.0  0.60868  0.73400  0.72787  1.0000
  O   O114      1.0  0.63070  0.71148  0.72787  1.0000
  H   H270      1.0  0.65272  0.73400  0.72787  1.0000
  H   H271      1.0  0.60868  0.82309  0.36328  1.0000
  O   O115      1.0  0.63070  0.80058  0.36328  1.0000
  H   H272      1.0  0.65272  0.82309  0.36328  1.0000
  H   H273      1.0  0.60868  0.82309  0.45443  1.0000
  O   O116      1.0  0.63070  0.80058  0.45443  1.0000
  H   H274      1.0  0.65272  0.82309  0.45443  1.0000
  H   H275      1.0  0.60868  0.82309  0.54557  1.0000
  O   O117      1.0  0.63070  0.80058  0.54557  1.0000
  H   H276      1.0  0.65272  0.82309  0.54557  1.0000
  H   H277      1.0  0.60868  0.82309  0.63672  1.0000
  O   O118      1.0  0.63070  0.80058  0.63672  1.0000
  H   H278      1.0  0.65272  0.82309  0.63672  1.0000
  H   H279      1.0  0.69582  0.28852  0.27213  1.0000
  O   O119      1.0  0.71784  0.26600  0.27213  1.0000
  H   H280      1.0  0.73986  0.28852  0.27213  1.0000
  H   H281      1.0  0.69582  0.28852  0.36328  1.0000
  O   O120      1.0  0.71784  0.26600  0.36328  1.0000
  H   H282      1.0  0.73986  0.28852  0.36328  1.0000
  H   H283      1.0  0.69582  0.28852  0.45443  1.0000
  O   O121      1.0  0.71784  0.26600  0.45443  1.0000
  H   H284      1.0  0.73986  0.28852  0.45443  1.0000
  H   H285      1.0  0.69582  0.28852  0.54557  1.0000
  O   O122      1.0  0.71784  0.26600  0.54557  1.0000
  H   H286      1.0  0.73986  0.28852  0.54557  1.0000
  H   H287      1.0  0.69582  0.28852  0.63672  1.0000
  O   O123      1.0  0.71784  0.26600  0.63672  1.0000
  H   H288      1.0  0.73986  0.28852  0.63672  1.0000
  H   H289      1.0  0.69582  0.28852  0.72787  1.0000
  O   O124      1.0  0.71784  0.26600  0.72787  1.0000
  H   H290      1.0  0.73986  0.28852  0.72787  1.0000
  H   H291      1.0  0.69582  0.37761  0.27213  1.0000
  O   O125      1.0  0.71784  0.35510  0.27213  1.0000
  H   H292      1.0  0.73986  0.37761  0.27213  1.0000
  H   H293      1.0  0.69582  0.37761  0.45443  1.0000
  O   O126      1.0  0.71784  0.35510  0.45443  1.0000
  H   H294      1.0  0.73986  0.37761  0.45443  1.0000
  H   H295      1.0  0.69582  0.37761  0.72787  1.0000
  O   O127      1.0  0.71784  0.35510  0.72787  1.0000
  H   H296      1.0  0.73986  0.37761  0.72787  1.0000
  H   H297      1.0  0.69582  0.46671  0.27213  1.0000
  O   O128      1.0  0.71784  0.44419  0.27213  1.0000
  H   H298      1.0  0.73986  0.46671  0.27213  1.0000
  H   H299      1.0  0.69582  0.46671  0.72787  1.0000
  O   O129      1.0  0.71784  0.44419  0.72787  1.0000
  H   H300      1.0  0.73986  0.46671  0.72787  1.0000
  H   H301      1.0  0.69582  0.55581  0.27213  1.0000
  O   O130      1.0  0.71784  0.53329  0.27213  1.0000
  H   H302      1.0  0.73986  0.55581  0.27213  1.0000
  H   H303      1.0  0.69582  0.55581  0.72787  1.0000
  O   O131      1.0  0.71784  0.53329  0.72787  1.0000
  H   H304      1.0  0.73986  0.55581  0.72787  1.0000
  H   H305      1.0  0.69582  0.64490  0.27213  1.0000
  O   O132      1.0  0.71784  0.62239  0.27213  1.0000
  H   H306      1.0  0.73986  0.64490  0.27213  1.0000
  H   H307      1.0  0.69582  0.64490  0.45443  1.0000
  O   O133      1.0  0.71784  0.62239  0.45443  1.0000
  H   H308      1.0  0.73986  0.64490  0.45443  1.0000
  H   H309      1.0  0.69582  0.64490  0.72787  1.0000
  O   O134      1.0  0.71784  0.62239  0.72787  1.0000
  H   H310      1.0  0.73986  0.64490  0.72787  1.0000
  H   H311      1.0  0.69582  0.73400  0.27213  1.0000
  O   O135      1.0  0.71784  0.71148  0.27213  1.0000
  H   H312      1.0  0.73986  0.73400  0.27213  1.0000
  H   H313      1.0  0.69582  0.73400  0.36328  1.0000
  O   O136      1.0  0.71784  0.71148  0.36328  1.0000
  H   H314      1.0  0.73986  0.73400  0.36328  1.0000
  H   H315      1.0  0.69582  0.73400  0.45443  1.0000
  O   O137      1.0  0.71784  0.71148  0.45443  1.0000
  H   H316      1.0  0.73986  0.73400  0.45443  1.0000
  H   H317      1.0  0.69582  0.73400  0.54557  1.0000
  O   O138      1.0  0.71784  0.71148  0.54557  1.0000
  H   H318      1.0  0.73986  0.73400  0.54557  1.0000
  H   H319      1.0  0.69582  0.73400  0.63672  1.0000
  O   O139      1.0  0.71784  0.71148  0.63672  1.0000
  H   H320      1.0  0.73986  0.73400  0.63672  1.0000
  H   H321      1.0  0.69582  0.73400  0.72787  1.0000
  O   O140      1.0  0.71784  0.71148  0.72787  1.0000
  H   H322      1.0  0.73986  0.73400  0.72787  1.0000
  H   H323      1.0  0.78295  0.37761  0.36328  1.0000
  O   O141      1.0  0.80497  0.35510  0.36328  1.0000
  H   H324      1.0  0.82699  0.37761  0.36328  1.0000
  H   H325      1.0  0.78295  0.37761  0.45443  1.0000
  O   O142      1.0  0.80497  0.35510  0.45443  1.0000
  H   H326      1.0  0.82699  0.37761  0.45443  1.0000
  H   H327      1.0  0.78295  0.37761  0.54557  1.0000
  O   O143      1.0  0.80497  0.35510  0.54557  1.0000
  H   H328      1.0  0.82699  0.37761  0.54557  1.0000
  H   H329      1.0  0.78295  0.37761  0.63672  1.0000
  O   O144      1.0  0.80497  0.35510  0.63672  1.0000
  H   H330      1.0  0.82699  0.37761  0.63672  1.0000
  H   H331      1.0  0.78295  0.46671  0.36328  1.0000
  O   O145      1.0  0.80497  0.44419  0.36328  1.0000
  H   H332      1.0  0.82699  0.46671  0.36328  1.0000
  H   H333      1.0  0.78295  0.46671  0.45443  1.0000
  O   O146      1.0  0.80497  0.44419  0.45443  1.0000
  H   H334      1.0  0.82699  0.46671  0.45443  1.0000
  H   H335      1.0  0.78295  0.46671  0.54557  1.0000
  O   O147      1.0  0.80497  0.44419  0.54557  1.0000
  H   H336      1.0  0.82699  0.46671  0.54557  1.0000
  H   H337      1.0  0.78295  0.46671  0.63672  1.0000
  O   O148      1.0  0.80497  0.44419  0.63672  1.0000
  H   H338      1.0  0.82699  0.46671  0.63672  1.0000
  H   H339      1.0  0.78295  0.55581  0.36328  1.0000
  O   O149      1.0  0.80497  0.53329  0.36328  1.0000
  H   H340      1.0  0.82699  0.55581  0.36328  1.0000
  H   H341      1.0  0.78295  0.55581  0.45443  1.0000
  O   O150      1.0  0.80497  0.53329  0.45443  1.0000
  H   H342      1.0  0.82699  0.55581  0.45443  1.0000
  H   H343      1.0  0.78295  0.55581  0.54557  1.0000
  O   O151      1.0  0.80497  0.53329  0.54557  1.0000
  H   H344      1.0  0.82699  0.55581  0.54557  1.0000
  H   H345      1.0  0.78295  0.55581  0.63672  1.0000
  O   O152      1.0  0.80497  0.53329  0.63672  1.0000
  H   H346      1.0  0.82699  0.55581  0.63672  1.0000
  H   H347      1.0  0.78295  0.64490  0.36328  1.0000
  O   O153      1.0  0.80497  0.62239  0.36328  1.0000
  H   H348      1.0  0.82699  0.64490  0.36328  1.0000
  H   H349      1.0  0.78295  0.64490  0.45443  1.0000
  O   O154      1.0  0.80497  0.62239  0.45443  1.0000
  H   H350      1.0  0.82699  0.64490  0.45443  1.0000
  H   H351      1.0  0.78295  0.64490  0.54557  1.0000
  O   O155      1.0  0.80497  0.62239  0.54557  1.0000
  H   H352      1.0  0.82699  0.64490  0.54557  1.0000
  H   H353      1.0  0.78295  0.64490  0.63672  1.0000
  O   O156      1.0  0.80497  0.62239  0.63672  1.0000
  H   H354      1.0  0.82699  0.64490  0.63672  1.0000
