data_image0
_chemical_formula_structural       I36Pb8C7N7H43OH2OH2OH2OH2OH2OH2OH2OH2OH2OH2OH2OH2OH2OH2OH2OH2OH2OH2OH2OH2OH2OH2OH2OH2OH2OH2OH2OH2OH2OH2OH2OH2OH2OH2OH2OH2OH2OH2OH2OH2OH2OH2OH2OH2OH2OH2OH2OH2OH2OH2OH2OH2OH2OH2OH2OH2OH2OH2OH2OH2OH2OH2OH2OH2OH2OH2OH2OH2OH2OH2OH2OH2OH2OH2OH2OH2OH2OH2OH2OH2OH2OH2OH2OH2OH2OH2OH2OH2OH2OH2OH2OH2OH2OH2OH2OH2OH2OH2OH2OH2OH2OH2OH2OH2OH2OH2OH2OH2OH2OH2OH2OH2OH2OH2OH2OH2OH2OH2OH2OH2OH2OH2OH2OH2OH2OH2OH2OH2OH2OH2OH2OH2OH2OH2OH2OH2OH2OH2OH2OH2OH2OH2OH2OH2OH2OH2OH2OH2OH2OH2OH2OH2OH2OH2OH2OH
_chemical_formula_sum              "I36 Pb8 C7 N7 H354 O156"
_cell_length_a       31.79
_cell_length_b       31.09
_cell_length_c       30.39
_cell_angle_alpha    90
_cell_angle_beta     90
_cell_angle_gamma    90

_space_group_name_H-M_alt    "P 1"
_space_group_IT_number       1

loop_
  _space_group_symop_operation_xyz
  'x, y, z'

loop_
  _atom_site_type_symbol
  _atom_site_label
  _atom_site_symmetry_multiplicity
  _atom_site_fract_x
  _atom_site_fract_y
  _atom_site_fract_z
  _atom_site_occupancy
  I   I1        1.0  0.40498  0.39357  0.29272  1.0000
  I   I2        1.0  0.58501  0.40443  0.29948  1.0000
  I   I3        1.0  0.37744  0.60090  0.30038  1.0000
  I   I4        1.0  0.58608  0.59025  0.29356  1.0000
  I   I5        1.0  0.37481  0.29673  0.40375  1.0000
  I   I6        1.0  0.60703  0.30365  0.40498  1.0000
  I   I7        1.0  0.29727  0.41530  0.38075  1.0000
  I   I8        1.0  0.37703  0.39461  0.49674  1.0000
  I   I9        1.0  0.40296  0.49546  0.39696  1.0000
  I   I10       1.0  0.49255  0.37882  0.41078  1.0000
  I   I11       1.0  0.59230  0.40039  0.50955  1.0000
  I   I12       1.0  0.56902  0.50668  0.40865  1.0000
  I   I13       1.0  0.69010  0.43028  0.40198  1.0000
  I   I14       1.0  0.28739  0.59126  0.41168  1.0000
  I   I15       1.0  0.39739  0.58285  0.50725  1.0000
  I   I16       1.0  0.37782  0.70196  0.41281  1.0000
  I   I17       1.0  0.48826  0.61375  0.38991  1.0000
  I   I18       1.0  0.59204  0.60483  0.50458  1.0000
  I   I19       1.0  0.58716  0.72181  0.40479  1.0000
  I   I20       1.0  0.69538  0.61606  0.39327  1.0000
  I   I21       1.0  0.39873  0.26941  0.58893  1.0000
  I   I22       1.0  0.54083  0.27634  0.59447  1.0000
  I   I23       1.0  0.29602  0.41808  0.59932  1.0000
  I   I24       1.0  0.38516  0.39547  0.70403  1.0000
  I   I25       1.0  0.40836  0.48549  0.60169  1.0000
  I   I26       1.0  0.50593  0.37503  0.61723  1.0000
  I   I27       1.0  0.62381  0.39814  0.71194  1.0000
  I   I28       1.0  0.61032  0.51692  0.63184  1.0000
  I   I29       1.0  0.70882  0.40832  0.58898  1.0000
  I   I30       1.0  0.29890  0.60084  0.59609  1.0000
  I   I31       1.0  0.39988  0.58837  0.69111  1.0000
  I   I32       1.0  0.38827  0.75652  0.57269  1.0000
  I   I33       1.0  0.49387  0.58104  0.59174  1.0000
  I   I34       1.0  0.55584  0.61794  0.72227  1.0000
  I   I35       1.0  0.53152  0.72078  0.61874  1.0000
  I   I36       1.0  0.68641  0.62876  0.59978  1.0000
  Pb  Pb1       1.0  0.39616  0.39207  0.39360  1.0000
  Pb  Pb2       1.0  0.59699  0.40704  0.40039  1.0000
  Pb  Pb3       1.0  0.38403  0.60001  0.40118  1.0000
  Pb  Pb4       1.0  0.58818  0.60967  0.39552  1.0000
  Pb  Pb5       1.0  0.40331  0.38917  0.60451  1.0000
  Pb  Pb6       1.0  0.61370  0.41817  0.61330  1.0000
  Pb  Pb7       1.0  0.39082  0.62959  0.60083  1.0000
  Pb  Pb8       1.0  0.57439  0.62248  0.62297  1.0000
  C   C1        1.0  0.47298  0.50026  0.28092  1.0000
  C   C2        1.0  0.47284  0.24317  0.47859  1.0000
  C   C3        1.0  0.28389  0.48931  0.48913  1.0000
  C   C4        1.0  0.47981  0.48173  0.49394  1.0000
  C   C5        1.0  0.67144  0.51071  0.50741  1.0000
  C   C6        1.0  0.47926  0.68344  0.49688  1.0000
  C   C7        1.0  0.49000  0.48971  0.69495  1.0000
  N   N1        1.0  0.51762  0.49690  0.30238  1.0000
  N   N2        1.0  0.51720  0.25663  0.46174  1.0000
  N   N3        1.0  0.32657  0.49320  0.51412  1.0000
  N   N4        1.0  0.52451  0.49008  0.51400  1.0000
  N   N5        1.0  0.71884  0.49956  0.51070  1.0000
  N   N6        1.0  0.52700  0.69136  0.50650  1.0000
  N   N7        1.0  0.52794  0.49953  0.72592  1.0000
  H   H1        1.0  0.47735  0.50537  0.24666  1.0000
  H   H2        1.0  0.45694  0.52649  0.29583  1.0000
  H   H3        1.0  0.45672  0.47096  0.28700  1.0000
  H   H4        1.0  0.53642  0.52337  0.29371  1.0000
  H   H5        1.0  0.53336  0.46860  0.29320  1.0000
  H   H6        1.0  0.51570  0.49715  0.33660  1.0000
  H   H7        1.0  0.45466  0.23425  0.45074  1.0000
  H   H8        1.0  0.45901  0.26969  0.49509  1.0000
  H   H9        1.0  0.47659  0.21681  0.50074  1.0000
  H   H10       1.0  0.51518  0.28373  0.44237  1.0000
  H   H11       1.0  0.53098  0.23034  0.44053  1.0000
  H   H12       1.0  0.53695  0.26275  0.48780  1.0000
  H   H13       1.0  0.28971  0.49496  0.45521  1.0000
  H   H14       1.0  0.26278  0.51242  0.50233  1.0000
  H   H15       1.0  0.27237  0.45768  0.49448  1.0000
  H   H16       1.0  0.34221  0.52222  0.50763  1.0000
  H   H17       1.0  0.34619  0.46726  0.50545  1.0000
  H   H18       1.0  0.32155  0.49104  0.54781  1.0000
  H   H19       1.0  0.48422  0.46717  0.46268  1.0000
  H   H20       1.0  0.46420  0.51183  0.49110  1.0000
  H   H21       1.0  0.46336  0.46080  0.51553  1.0000
  H   H22       1.0  0.54248  0.50722  0.49111  1.0000
  H   H23       1.0  0.54018  0.46083  0.51959  1.0000
  H   H24       1.0  0.52224  0.50806  0.54280  1.0000
  H   H25       1.0  0.66142  0.50512  0.47459  1.0000
  H   H26       1.0  0.66785  0.54354  0.51588  1.0000
  H   H27       1.0  0.65436  0.49115  0.52968  1.0000
  H   H28       1.0  0.73694  0.51645  0.48406  1.0000
  H   H29       1.0  0.72338  0.46696  0.50768  1.0000
  H   H30       1.0  0.73182  0.50946  0.54055  1.0000
  H   H31       1.0  0.47701  0.66557  0.46718  1.0000
  H   H32       1.0  0.46383  0.71360  0.49419  1.0000
  H   H33       1.0  0.46692  0.66520  0.52346  1.0000
  H   H34       1.0  0.54078  0.70970  0.48178  1.0000
  H   H35       1.0  0.54367  0.66187  0.50751  1.0000
  H   H36       1.0  0.53032  0.70644  0.53704  1.0000
  H   H37       1.0  0.50160  0.47697  0.66496  1.0000
  H   H38       1.0  0.47365  0.51898  0.68919  1.0000
  H   H39       1.0  0.47016  0.46704  0.71087  1.0000
  H   H40       1.0  0.54903  0.51951  0.71017  1.0000
  H   H41       1.0  0.54316  0.47129  0.73410  1.0000
  H   H42       1.0  0.51675  0.51592  0.75697  1.0000
  H   H43       1.0  0.22764  0.35657  0.35241  1.0000
  O   O1        1.0  0.25344  0.35063  0.33367  1.0000
  H   H44       1.0  0.26441  0.37498  0.29411  1.0000
  H   H45       1.0  0.20606  0.38559  0.44654  1.0000
  O   O2        1.0  0.23304  0.36138  0.45833  1.0000
  H   H46       1.0  0.25935  0.37753  0.45019  1.0000
  H   H47       1.0  0.19962  0.42878  0.57282  1.0000
  O   O3        1.0  0.21881  0.38185  0.56932  1.0000
  H   H48       1.0  0.22769  0.37016  0.53944  1.0000
  H   H49       1.0  0.22115  0.35267  0.60313  1.0000
  O   O4        1.0  0.22580  0.32999  0.63188  1.0000
  H   H50       1.0  0.23123  0.34659  0.65986  1.0000
  H   H51       1.0  0.19182  0.49029  0.35497  1.0000
  O   O5        1.0  0.18738  0.45478  0.36452  1.0000
  H   H52       1.0  0.18559  0.43598  0.33802  1.0000
  H   H53       1.0  0.16447  0.42888  0.45657  1.0000
  O   O6        1.0  0.18393  0.41652  0.43422  1.0000
  H   H54       1.0  0.18595  0.43560  0.40110  1.0000
  H   H55       1.0  0.19217  0.48596  0.56403  1.0000
  O   O7        1.0  0.18751  0.45842  0.58327  1.0000
  H   H56       1.0  0.19227  0.46433  0.62418  1.0000
  H   H57       1.0  0.20605  0.50631  0.67483  1.0000
  O   O8        1.0  0.19939  0.46977  0.66152  1.0000
  H   H58       1.0  0.22027  0.44837  0.67272  1.0000
  H   H59       1.0  0.18989  0.55942  0.35142  1.0000
  O   O9        1.0  0.19825  0.52832  0.34018  1.0000
  H   H60       1.0  0.22554  0.53141  0.32151  1.0000
  H   H61       1.0  0.17222  0.53632  0.43202  1.0000
  O   O10       1.0  0.19446  0.54176  0.45477  1.0000
  H   H62       1.0  0.21875  0.55713  0.43976  1.0000
  H   H63       1.0  0.19363  0.53704  0.50820  1.0000
  O   O11       1.0  0.19789  0.53119  0.54142  1.0000
  H   H64       1.0  0.20626  0.55805  0.55734  1.0000
  H   H65       1.0  0.20457  0.57105  0.67178  1.0000
  O   O12       1.0  0.21541  0.54153  0.68757  1.0000
  H   H66       1.0  0.24471  0.54368  0.70242  1.0000
  H   H67       1.0  0.18663  0.62749  0.38905  1.0000
  O   O13       1.0  0.18744  0.60761  0.36099  1.0000
  H   H68       1.0  0.20232  0.62388  0.33716  1.0000
  H   H69       1.0  0.16517  0.68103  0.43206  1.0000
  O   O14       1.0  0.18941  0.66135  0.42618  1.0000
  H   H70       1.0  0.21747  0.67920  0.42611  1.0000
  H   H71       1.0  0.17214  0.65110  0.55285  1.0000
  O   O15       1.0  0.19421  0.64933  0.57624  1.0000
  H   H72       1.0  0.21706  0.67166  0.57018  1.0000
  H   H73       1.0  0.19276  0.62288  0.62439  1.0000
  O   O16       1.0  0.19449  0.61151  0.65615  1.0000
  H   H74       1.0  0.20922  0.63421  0.67554  1.0000
  H   H75       1.0  0.22406  0.29667  0.27248  1.0000
  O   O17       1.0  0.23939  0.27104  0.26043  1.0000
  H   H76       1.0  0.26190  0.26359  0.28365  1.0000
  H   H77       1.0  0.29311  0.29220  0.33874  1.0000
  O   O18       1.0  0.30082  0.26504  0.32244  1.0000
  H   H78       1.0  0.32685  0.27356  0.29403  1.0000
  H   H79       1.0  0.24495  0.32362  0.45966  1.0000
  O   O19       1.0  0.26759  0.29168  0.46179  1.0000
  H   H80       1.0  0.29462  0.30002  0.44646  1.0000
  H   H81       1.0  0.27996  0.28072  0.51011  1.0000
  O   O20       1.0  0.29166  0.26377  0.53780  1.0000
  H   H82       1.0  0.28448  0.26917  0.57857  1.0000
  H   H83       1.0  0.25170  0.30088  0.62523  1.0000
  O   O21       1.0  0.27739  0.27453  0.61508  1.0000
  H   H84       1.0  0.29744  0.26189  0.63681  1.0000
  H   H85       1.0  0.23901  0.28706  0.75188  1.0000
  O   O22       1.0  0.26713  0.29845  0.74317  1.0000
  H   H86       1.0  0.26606  0.33070  0.73180  1.0000
  H   H87       1.0  0.28280  0.42115  0.26562  1.0000
  O   O23       1.0  0.27423  0.38898  0.26375  1.0000
  H   H88       1.0  0.29344  0.36433  0.23898  1.0000
  H   H89       1.0  0.27247  0.40371  0.71960  1.0000
  O   O24       1.0  0.27084  0.37192  0.70823  1.0000
  H   H90       1.0  0.29618  0.36916  0.68836  1.0000
  H   H91       1.0  0.28693  0.49825  0.28007  1.0000
  O   O25       1.0  0.30226  0.46900  0.27106  1.0000
  H   H92       1.0  0.32453  0.46328  0.29398  1.0000
  H   H93       1.0  0.28398  0.48343  0.72815  1.0000
  O   O26       1.0  0.29161  0.45164  0.72576  1.0000
  H   H94       1.0  0.32121  0.44969  0.71358  1.0000
  H   H95       1.0  0.26941  0.57174  0.27969  1.0000
  O   O27       1.0  0.27086  0.54178  0.29866  1.0000
  H   H96       1.0  0.28917  0.54853  0.32497  1.0000
  H   H97       1.0  0.29238  0.57923  0.73349  1.0000
  O   O28       1.0  0.29201  0.54532  0.72209  1.0000
  H   H98       1.0  0.31090  0.54584  0.69539  1.0000
  H   H99       1.0  0.25590  0.64302  0.26512  1.0000
  O   O29       1.0  0.27466  0.61448  0.26058  1.0000
  H   H100      1.0  0.30396  0.62235  0.27088  1.0000
  H   H101      1.0  0.26923  0.64153  0.72982  1.0000
  O   O30       1.0  0.29319  0.62302  0.74380  1.0000
  H   H102      1.0  0.32058  0.64014  0.74555  1.0000
  H   H103      1.0  0.22073  0.70386  0.26046  1.0000
  O   O31       1.0  0.23915  0.68420  0.27772  1.0000
  H   H104      1.0  0.25551  0.69984  0.30400  1.0000
  H   H105      1.0  0.27097  0.71116  0.37322  1.0000
  O   O32       1.0  0.28138  0.71517  0.34044  1.0000
  H   H106      1.0  0.31058  0.70278  0.33895  1.0000
  H   H107      1.0  0.26334  0.73580  0.43906  1.0000
  O   O33       1.0  0.26041  0.70479  0.42356  1.0000
  H   H108      1.0  0.28338  0.68487  0.43400  1.0000
  H   H109      1.0  0.27336  0.72919  0.55023  1.0000
  O   O34       1.0  0.26409  0.70139  0.56589  1.0000
  H   H110      1.0  0.28280  0.67614  0.55739  1.0000
  H   H111      1.0  0.27139  0.70765  0.61694  1.0000
  O   O35       1.0  0.27632  0.71311  0.65059  1.0000
  H   H112      1.0  0.30704  0.71731  0.65694  1.0000
  H   H113      1.0  0.21692  0.68852  0.72378  1.0000
  O   O36       1.0  0.23576  0.67022  0.70518  1.0000
  H   H114      1.0  0.25250  0.68974  0.68160  1.0000
  H   H115      1.0  0.30451  0.23322  0.34535  1.0000
  O   O37       1.0  0.30904  0.20140  0.36820  1.0000
  H   H116      1.0  0.34168  0.18747  0.37018  1.0000
  H   H117      1.0  0.26500  0.24837  0.45446  1.0000
  O   O38       1.0  0.26767  0.21184  0.44796  1.0000
  H   H118      1.0  0.29148  0.20121  0.39647  1.0000
  H   H119      1.0  0.30045  0.23444  0.52580  1.0000
  O   O39       1.0  0.30498  0.19808  0.48217  1.0000
  H   H120      1.0  0.32899  0.19236  0.46051  1.0000
  H   H121      1.0  0.34883  0.17318  0.67935  1.0000
  O   O40       1.0  0.35372  0.20440  0.67384  1.0000
  H   H122      1.0  0.34212  0.22655  0.70020  1.0000
  H   H123      1.0  0.33419  0.30923  0.24232  1.0000
  O   O41       1.0  0.34774  0.28487  0.26352  1.0000
  H   H124      1.0  0.37980  0.27967  0.26024  1.0000
  H   H125      1.0  0.30435  0.27382  0.73653  1.0000
  O   O42       1.0  0.33346  0.25717  0.72934  1.0000
  H   H126      1.0  0.35910  0.27280  0.74025  1.0000
  H   H127      1.0  0.29209  0.32426  0.19630  1.0000
  O   O43       1.0  0.31255  0.34036  0.21527  1.0000
  H   H128      1.0  0.33964  0.37253  0.19325  1.0000
  H   H129      1.0  0.38744  0.36630  0.85674  1.0000
  O   O44       1.0  0.39801  0.37711  0.82786  1.0000
  H   H130      1.0  0.38012  0.40438  0.81857  1.0000
  H   H131      1.0  0.32824  0.47507  0.22561  1.0000
  O   O45       1.0  0.34715  0.47556  0.19795  1.0000
  H   H132      1.0  0.36239  0.51020  0.18619  1.0000
  H   H133      1.0  0.32484  0.43222  0.79216  1.0000
  O   O46       1.0  0.35054  0.44130  0.80896  1.0000
  H   H134      1.0  0.35280  0.47470  0.80461  1.0000
  H   H135      1.0  0.35615  0.57387  0.18255  1.0000
  O   O47       1.0  0.37520  0.54519  0.17710  1.0000
  H   H136      1.0  0.40712  0.55303  0.17734  1.0000
  H   H137      1.0  0.32711  0.53186  0.76634  1.0000
  O   O48       1.0  0.34726  0.52443  0.79163  1.0000
  H   H138      1.0  0.36268  0.55160  0.80002  1.0000
  H   H139      1.0  0.30500  0.60656  0.20610  1.0000
  O   O49       1.0  0.33308  0.61140  0.19107  1.0000
  H   H140      1.0  0.34432  0.64154  0.20277  1.0000
  H   H141      1.0  0.36978  0.62314  0.84581  1.0000
  O   O50       1.0  0.38188  0.61809  0.81591  1.0000
  H   H142      1.0  0.37287  0.64347  0.79339  1.0000
  H   H143      1.0  0.33508  0.70918  0.20334  1.0000
  O   O51       1.0  0.35029  0.68759  0.22179  1.0000
  H   H144      1.0  0.37795  0.70301  0.23420  1.0000
  H   H145      1.0  0.35247  0.70456  0.77259  1.0000
  O   O52       1.0  0.36430  0.67708  0.76071  1.0000
  H   H146      1.0  0.39520  0.68426  0.74481  1.0000
  H   H147      1.0  0.35962  0.78268  0.32300  1.0000
  O   O53       1.0  0.38881  0.77060  0.32665  1.0000
  H   H148      1.0  0.38687  0.74560  0.34909  1.0000
  H   H149      1.0  0.27289  0.80376  0.43962  1.0000
  O   O54       1.0  0.26740  0.77794  0.45832  1.0000
  H   H150      1.0  0.27971  0.78158  0.49007  1.0000
  H   H151      1.0  0.28359  0.80407  0.55835  1.0000
  O   O55       1.0  0.29505  0.78124  0.53826  1.0000
  H   H152      1.0  0.32711  0.77551  0.54608  1.0000
  H   H153      1.0  0.34549  0.81239  0.67906  1.0000
  O   O56       1.0  0.36102  0.78485  0.67350  1.0000
  H   H154      1.0  0.36353  0.77939  0.64000  1.0000
  H   H155      1.0  0.42754  0.23023  0.30062  1.0000
  O   O57       1.0  0.43407  0.21550  0.32967  1.0000
  H   H156      1.0  0.45488  0.23633  0.34703  1.0000
  H   H157      1.0  0.40534  0.19265  0.35238  1.0000
  O   O58       1.0  0.38172  0.17360  0.37149  1.0000
  H   H158      1.0  0.38749  0.14211  0.36984  1.0000
  H   H159      1.0  0.46405  0.18924  0.58640  1.0000
  O   O59       1.0  0.48259  0.17713  0.56264  1.0000
  H   H160      1.0  0.51298  0.18508  0.57104  1.0000
  H   H161      1.0  0.39022  0.21911  0.65865  1.0000
  O   O60       1.0  0.42031  0.23629  0.64904  1.0000
  H   H162      1.0  0.43242  0.27277  0.69347  1.0000
  H   H163      1.0  0.42936  0.24881  0.22295  1.0000
  O   O61       1.0  0.42739  0.26731  0.24986  1.0000
  H   H164      1.0  0.45177  0.29079  0.24872  1.0000
  H   H165      1.0  0.46715  0.29725  0.37480  1.0000
  O   O62       1.0  0.48263  0.27096  0.36455  1.0000
  H   H166      1.0  0.50599  0.27983  0.34222  1.0000
  H   H167      1.0  0.41924  0.32235  0.70532  1.0000
  O   O63       1.0  0.43050  0.29494  0.71859  1.0000
  H   H168      1.0  0.45210  0.31772  0.76497  1.0000
  H   H169      1.0  0.35318  0.44309  0.18749  1.0000
  O   O64       1.0  0.35948  0.39741  0.17994  1.0000
  H   H170      1.0  0.38925  0.38714  0.17875  1.0000
  H   H171      1.0  0.46991  0.34794  0.27178  1.0000
  O   O65       1.0  0.48626  0.32649  0.25334  1.0000
  H   H172      1.0  0.50424  0.34701  0.22676  1.0000
  H   H173      1.0  0.43201  0.35227  0.80502  1.0000
  O   O66       1.0  0.45891  0.33695  0.79157  1.0000
  H   H174      1.0  0.49084  0.36416  0.79353  1.0000
  H   H175      1.0  0.44626  0.45768  0.82756  1.0000
  O   O67       1.0  0.47725  0.45965  0.82238  1.0000
  H   H176      1.0  0.48718  0.49143  0.81511  1.0000
  H   H177      1.0  0.48054  0.56057  0.79912  1.0000
  O   O68       1.0  0.50397  0.53450  0.79869  1.0000
  H   H178      1.0  0.52971  0.54775  0.81473  1.0000
  H   H179      1.0  0.45353  0.59189  0.14811  1.0000
  O   O69       1.0  0.45235  0.57422  0.17567  1.0000
  H   H180      1.0  0.46022  0.59477  0.20344  1.0000
  H   H181      1.0  0.44595  0.61190  0.26560  1.0000
  O   O70       1.0  0.46870  0.61816  0.24314  1.0000
  H   H182      1.0  0.48048  0.64859  0.25019  1.0000
  H   H183      1.0  0.42558  0.60503  0.80929  1.0000
  O   O71       1.0  0.45787  0.59775  0.80202  1.0000
  H   H184      1.0  0.47014  0.62058  0.78266  1.0000
  H   H185      1.0  0.40738  0.74743  0.27721  1.0000
  O   O72       1.0  0.41330  0.72919  0.25007  1.0000
  H   H186      1.0  0.44339  0.71699  0.25233  1.0000
  H   H187      1.0  0.48140  0.68807  0.36399  1.0000
  O   O73       1.0  0.48969  0.71526  0.34723  1.0000
  H   H188      1.0  0.51558  0.72752  0.36233  1.0000
  H   H189      1.0  0.43911  0.72446  0.71319  1.0000
  O   O74       1.0  0.43419  0.69402  0.72912  1.0000
  H   H190      1.0  0.44923  0.67023  0.71335  1.0000
  H   H191      1.0  0.42494  0.79990  0.35535  1.0000
  O   O75       1.0  0.44642  0.81673  0.37346  1.0000
  H   H192      1.0  0.47687  0.81841  0.35853  1.0000
  H   H193      1.0  0.44928  0.82094  0.41553  1.0000
  O   O76       1.0  0.45844  0.82990  0.45148  1.0000
  H   H194      1.0  0.44295  0.85661  0.46001  1.0000
  H   H195      1.0  0.46835  0.78328  0.54212  1.0000
  O   O77       1.0  0.48963  0.79509  0.52077  1.0000
  H   H196      1.0  0.47398  0.80734  0.49228  1.0000
  H   H197      1.0  0.40861  0.77553  0.68609  1.0000
  O   O78       1.0  0.43945  0.76441  0.68978  1.0000
  H   H198      1.0  0.45334  0.76225  0.66010  1.0000
  H   H199      1.0  0.55063  0.24142  0.31575  1.0000
  O   O79       1.0  0.55904  0.21184  0.32989  1.0000
  H   H200      1.0  0.57833  0.19542  0.31020  1.0000
  H   H201      1.0  0.55255  0.20313  0.37845  1.0000
  O   O80       1.0  0.54873  0.19791  0.41295  1.0000
  H   H202      1.0  0.57177  0.17910  0.42439  1.0000
  H   H203      1.0  0.57904  0.19385  0.62142  1.0000
  O   O81       1.0  0.56216  0.20541  0.58318  1.0000
  H   H204      1.0  0.58674  0.20635  0.55660  1.0000
  H   H205      1.0  0.58534  0.20454  0.68031  1.0000
  O   O82       1.0  0.59717  0.18738  0.65281  1.0000
  H   H206      1.0  0.62994  0.20013  0.64842  1.0000
  H   H207      1.0  0.51613  0.30411  0.27928  1.0000
  O   O83       1.0  0.53823  0.28843  0.30217  1.0000
  H   H208      1.0  0.56011  0.31037  0.31062  1.0000
  H   H209      1.0  0.55663  0.25469  0.72569  1.0000
  O   O84       1.0  0.58194  0.23799  0.71612  1.0000
  H   H210      1.0  0.60853  0.25748  0.71725  1.0000
  H   H211      1.0  0.53294  0.40583  0.19714  1.0000
  O   O85       1.0  0.52571  0.36981  0.19863  1.0000
  H   H212      1.0  0.55016  0.35375  0.18602  1.0000
  H   H213      1.0  0.49851  0.42105  0.80890  1.0000
  O   O86       1.0  0.51377  0.39213  0.79853  1.0000
  H   H214      1.0  0.54618  0.38888  0.81004  1.0000
  H   H215      1.0  0.53401  0.47751  0.18553  1.0000
  O   O87       1.0  0.54703  0.44632  0.19454  1.0000
  H   H216      1.0  0.57847  0.44932  0.19930  1.0000
  H   H217      1.0  0.49415  0.53640  0.17457  1.0000
  O   O88       1.0  0.52294  0.52174  0.17720  1.0000
  H   H218      1.0  0.54543  0.54614  0.17603  1.0000
  H   H219      1.0  0.56507  0.60236  0.21022  1.0000
  O   O89       1.0  0.57299  0.59020  0.18058  1.0000
  H   H220      1.0  0.60543  0.58992  0.17953  1.0000
  H   H221      1.0  0.55389  0.57390  0.87435  1.0000
  O   O90       1.0  0.56598  0.57286  0.84394  1.0000
  H   H222      1.0  0.58568  0.60145  0.83885  1.0000
  H   H223      1.0  0.49161  0.70571  0.29990  1.0000
  O   O91       1.0  0.49058  0.69824  0.26534  1.0000
  H   H224      1.0  0.51597  0.71075  0.25067  1.0000
  H   H225      1.0  0.57424  0.70192  0.71949  1.0000
  O   O92       1.0  0.59727  0.72206  0.72929  1.0000
  H   H226      1.0  0.59856  0.74926  0.71018  1.0000
  H   H227      1.0  0.53029  0.85147  0.33392  1.0000
  O   O93       1.0  0.52208  0.82424  0.34921  1.0000
  H   H228      1.0  0.53409  0.82422  0.38216  1.0000
  H   H229      1.0  0.50734  0.83120  0.44222  1.0000
  O   O94       1.0  0.53811  0.82651  0.43058  1.0000
  H   H230      1.0  0.55412  0.80722  0.45108  1.0000
  H   H231      1.0  0.53480  0.79291  0.52514  1.0000
  O   O95       1.0  0.56920  0.79178  0.52429  1.0000
  H   H232      1.0  0.58109  0.82033  0.53308  1.0000
  H   H233      1.0  0.57127  0.77254  0.65409  1.0000
  O   O96       1.0  0.59339  0.78831  0.67351  1.0000
  H   H234      1.0  0.58171  0.81689  0.68309  1.0000
  H   H235      1.0  0.66384  0.24512  0.33376  1.0000
  O   O97       1.0  0.66743  0.24652  0.37846  1.0000
  H   H236      1.0  0.69176  0.26944  0.38510  1.0000
  H   H237      1.0  0.66442  0.21939  0.41478  1.0000
  O   O98       1.0  0.66659  0.20168  0.44785  1.0000
  H   H238      1.0  0.71039  0.22482  0.46185  1.0000
  H   H239      1.0  0.63398  0.24214  0.53127  1.0000
  O   O99       1.0  0.61830  0.21185  0.52745  1.0000
  H   H240      1.0  0.63037  0.19562  0.50162  1.0000
  H   H241      1.0  0.65814  0.25191  0.66980  1.0000
  O   O100      1.0  0.66346  0.22580  0.64918  1.0000
  H   H242      1.0  0.68865  0.23189  0.62893  1.0000
  H   H243      1.0  0.63782  0.25875  0.28497  1.0000
  O   O101      1.0  0.66513  0.24772  0.29684  1.0000
  H   H244      1.0  0.69843  0.26978  0.28390  1.0000
  H   H245      1.0  0.62666  0.30448  0.54991  1.0000
  O   O102      1.0  0.64930  0.28513  0.53821  1.0000
  H   H246      1.0  0.66857  0.30334  0.51736  1.0000
  H   H247      1.0  0.63606  0.31742  0.69955  1.0000
  O   O103      1.0  0.64954  0.28838  0.70493  1.0000
  H   H248      1.0  0.68052  0.29542  0.71703  1.0000
  H   H249      1.0  0.64804  0.41536  0.19296  1.0000
  O   O104      1.0  0.65626  0.37842  0.19068  1.0000
  H   H250      1.0  0.66137  0.36681  0.16056  1.0000
  H   H251      1.0  0.61095  0.41277  0.82256  1.0000
  O   O105      1.0  0.58685  0.38857  0.82666  1.0000
  H   H252      1.0  0.59528  0.36664  0.84888  1.0000
  H   H253      1.0  0.65334  0.47859  0.17896  1.0000
  O   O106      1.0  0.64241  0.45476  0.20154  1.0000
  H   H254      1.0  0.65786  0.46012  0.23221  1.0000
  H   H255      1.0  0.63652  0.47799  0.82060  1.0000
  O   O107      1.0  0.64276  0.44443  0.81937  1.0000
  H   H256      1.0  0.66822  0.43932  0.80076  1.0000
  H   H257      1.0  0.66567  0.54675  0.16204  1.0000
  O   O108      1.0  0.67012  0.51425  0.15275  1.0000
  H   H258      1.0  0.69279  0.51173  0.13020  1.0000
  H   H259      1.0  0.60205  0.54082  0.83161  1.0000
  O   O109      1.0  0.62843  0.52445  0.81941  1.0000
  H   H260      1.0  0.64459  0.54406  0.79958  1.0000
  H   H261      1.0  0.66510  0.61642  0.15409  1.0000
  O   O110      1.0  0.65982  0.59380  0.17691  1.0000
  H   H262      1.0  0.67691  0.60272  0.20695  1.0000
  H   H263      1.0  0.62855  0.65337  0.81103  1.0000
  O   O111      1.0  0.61810  0.63204  0.83687  1.0000
  H   H264      1.0  0.63727  0.63378  0.86279  1.0000
  H   H265      1.0  0.63059  0.67206  0.29504  1.0000
  O   O112      1.0  0.65786  0.67946  0.28003  1.0000
  H   H266      1.0  0.67911  0.69354  0.30215  1.0000
  H   H267      1.0  0.59900  0.75761  0.53399  1.0000
  O   O113      1.0  0.62143  0.73258  0.54182  1.0000
  H   H268      1.0  0.61597  0.72086  0.57195  1.0000
  H   H269      1.0  0.62603  0.69959  0.75662  1.0000
  O   O114      1.0  0.64646  0.68083  0.77782  1.0000
  H   H270      1.0  0.67111  0.69896  0.78652  1.0000
  H   H271      1.0  0.64208  0.76207  0.37106  1.0000
  O   O115      1.0  0.67006  0.77778  0.36452  1.0000
  H   H272      1.0  0.66445  0.80052  0.34177  1.0000
  H   H273      1.0  0.63939  0.77236  0.45479  1.0000
  O   O116      1.0  0.66657  0.78809  0.46175  1.0000
  H   H274      1.0  0.67844  0.79660  0.43208  1.0000
  H   H275      1.0  0.66858  0.80458  0.52029  1.0000
  O   O117      1.0  0.67031  0.81609  0.55188  1.0000
  H   H276      1.0  0.68867  0.84231  0.55102  1.0000
  H   H277      1.0  0.64027  0.78252  0.64853  1.0000
  O   O118      1.0  0.66684  0.77452  0.63157  1.0000
  H   H278      1.0  0.66796  0.78924  0.60120  1.0000
  H   H279      1.0  0.71780  0.32799  0.26045  1.0000
  O   O119      1.0  0.72586  0.29139  0.27455  1.0000
  H   H280      1.0  0.75185  0.28701  0.29244  1.0000
  H   H281      1.0  0.70740  0.32183  0.42175  1.0000
  O   O120      1.0  0.72538  0.30221  0.40298  1.0000
  H   H282      1.0  0.74927  0.32308  0.38685  1.0000
  H   H283      1.0  0.73575  0.26871  0.43904  1.0000
  O   O121      1.0  0.73575  0.24614  0.46514  1.0000
  H   H284      1.0  0.74832  0.25850  0.50257  1.0000
  H   H285      1.0  0.74810  0.26668  0.56690  1.0000
  O   O122      1.0  0.76046  0.27409  0.53489  1.0000
  H   H286      1.0  0.77532  0.30446  0.52983  1.0000
  H   H287      1.0  0.71320  0.29196  0.61264  1.0000
  O   O123      1.0  0.72914  0.26412  0.61101  1.0000
  H   H288      1.0  0.74945  0.26109  0.64076  1.0000
  H   H289      1.0  0.75138  0.27923  0.70441  1.0000
  O   O124      1.0  0.76885  0.25984  0.68055  1.0000
  H   H290      1.0  0.79996  0.26084  0.68457  1.0000
  H   H291      1.0  0.68242  0.36800  0.21880  1.0000
  O   O125      1.0  0.70822  0.36159  0.24649  1.0000
  H   H292      1.0  0.71355  0.38734  0.26530  1.0000
  H   H293      1.0  0.67892  0.36528  0.48764  1.0000
  O   O126      1.0  0.69472  0.33713  0.48964  1.0000
  H   H294      1.0  0.72433  0.34342  0.50077  1.0000
  H   H295      1.0  0.73072  0.31107  0.75895  1.0000
  O   O127      1.0  0.72561  0.30874  0.72655  1.0000
  H   H296      1.0  0.73842  0.34048  0.70655  1.0000
  H   H297      1.0  0.66753  0.45377  0.30024  1.0000
  O   O128      1.0  0.68392  0.46537  0.27449  1.0000
  H   H298      1.0  0.69250  0.49733  0.28166  1.0000
  H   H299      1.0  0.68275  0.45430  0.72409  1.0000
  O   O129      1.0  0.70799  0.47242  0.73254  1.0000
  H   H300      1.0  0.70557  0.50421  0.71851  1.0000
  H   H301      1.0  0.69208  0.55355  0.32449  1.0000
  O   O130      1.0  0.70475  0.54520  0.29526  1.0000
  H   H302      1.0  0.69946  0.57161  0.27422  1.0000
  H   H303      1.0  0.68169  0.54344  0.67148  1.0000
  O   O131      1.0  0.70470  0.54521  0.69440  1.0000
  H   H304      1.0  0.70165  0.57640  0.71223  1.0000
  H   H305      1.0  0.67647  0.64085  0.26082  1.0000
  O   O132      1.0  0.69602  0.61552  0.24709  1.0000
  H   H306      1.0  0.72620  0.62765  0.25173  1.0000
  H   H307      1.0  0.67171  0.61588  0.49902  1.0000
  O   O133      1.0  0.70115  0.62855  0.50347  1.0000
  H   H308      1.0  0.69658  0.66248  0.50365  1.0000
  H   H309      1.0  0.67320  0.62972  0.74486  1.0000
  O   O134      1.0  0.69942  0.61590  0.73234  1.0000
  H   H310      1.0  0.72103  0.64089  0.72423  1.0000
  H   H311      1.0  0.75182  0.68034  0.29676  1.0000
  O   O135      1.0  0.76397  0.65613  0.27797  1.0000
  H   H312      1.0  0.78636  0.64108  0.29570  1.0000
  H   H313      1.0  0.71089  0.68666  0.35954  1.0000
  O   O136      1.0  0.71392  0.70913  0.33516  1.0000
  H   H314      1.0  0.70300  0.73822  0.34722  1.0000
  H   H315      1.0  0.65991  0.72037  0.52549  1.0000
  O   O137      1.0  0.69085  0.71193  0.51027  1.0000
  H   H316      1.0  0.69282  0.73131  0.48369  1.0000
  H   H317      1.0  0.73105  0.70945  0.53438  1.0000
  O   O138      1.0  0.76152  0.70639  0.54928  1.0000
  H   H318      1.0  0.77689  0.73433  0.54672  1.0000
  H   H319      1.0  0.69944  0.74729  0.64634  1.0000
  O   O139      1.0  0.72583  0.72568  0.65249  1.0000
  H   H320      1.0  0.73478  0.71352  0.62328  1.0000
  H   H321      1.0  0.73743  0.70072  0.68636  1.0000
  O   O140      1.0  0.74994  0.67714  0.71159  1.0000
  H   H322      1.0  0.76607  0.69252  0.73501  1.0000
  H   H323      1.0  0.77934  0.37848  0.35592  1.0000
  O   O141      1.0  0.78129  0.35105  0.37487  1.0000
  H   H324      1.0  0.79679  0.35990  0.40392  1.0000
  H   H325      1.0  0.80842  0.41359  0.45143  1.0000
  O   O142      1.0  0.81767  0.37716  0.44756  1.0000
  H   H326      1.0  0.84876  0.37376  0.44332  1.0000
  H   H327      1.0  0.78989  0.37018  0.54060  1.0000
  O   O143      1.0  0.78807  0.34743  0.51748  1.0000
  H   H328      1.0  0.80213  0.35843  0.48678  1.0000
  H   H329      1.0  0.73808  0.37374  0.65527  1.0000
  O   O144      1.0  0.75337  0.36813  0.68385  1.0000
  H   H330      1.0  0.76602  0.40016  0.69716  1.0000
  H   H331      1.0  0.74827  0.43237  0.31731  1.0000
  O   O145      1.0  0.77748  0.43066  0.32981  1.0000
  H   H332      1.0  0.78664  0.46278  0.33160  1.0000
  H   H333      1.0  0.78628  0.47359  0.44128  1.0000
  O   O146      1.0  0.79866  0.45160  0.46177  1.0000
  H   H334      1.0  0.81039  0.46597  0.49298  1.0000
  H   H335      1.0  0.80357  0.50645  0.55090  1.0000
  O   O147      1.0  0.82271  0.48295  0.53158  1.0000
  H   H336      1.0  0.84587  0.47015  0.54935  1.0000
  H   H337      1.0  0.74526  0.45451  0.72278  1.0000
  O   O148      1.0  0.77450  0.43770  0.71186  1.0000
  H   H338      1.0  0.79637  0.45690  0.69889  1.0000
  H   H339      1.0  0.75796  0.52705  0.31080  1.0000
  O   O149      1.0  0.78466  0.51728  0.32634  1.0000
  H   H340      1.0  0.79703  0.54371  0.34117  1.0000
  H   H341      1.0  0.74086  0.55359  0.43026  1.0000
  O   O150      1.0  0.76030  0.53831  0.45125  1.0000
  H   H342      1.0  0.78384  0.56083  0.46228  1.0000
  H   H343      1.0  0.77698  0.53691  0.61002  1.0000
  O   O151      1.0  0.77779  0.53469  0.57264  1.0000
  H   H344      1.0  0.77634  0.56443  0.55982  1.0000
  H   H345      1.0  0.74883  0.54259  0.66957  1.0000
  O   O152      1.0  0.77763  0.54531  0.65285  1.0000
  H   H346      1.0  0.78662  0.57772  0.65546  1.0000
  H   H347      1.0  0.77191  0.60547  0.37293  1.0000
  O   O153      1.0  0.80193  0.59738  0.36483  1.0000
  H   H348      1.0  0.81819  0.59935  0.39330  1.0000
  H   H349      1.0  0.81101  0.61231  0.50308  1.0000
  O   O154      1.0  0.81629  0.59035  0.47583  1.0000
  H   H350      1.0  0.84495  0.57743  0.47911  1.0000
  H   H351      1.0  0.78619  0.66683  0.54379  1.0000
  O   O155      1.0  0.80565  0.63876  0.54183  1.0000
  H   H352      1.0  0.82114  0.63474  0.57021  1.0000
  H   H353      1.0  0.76509  0.63347  0.62680  1.0000
  O   O156      1.0  0.78806  0.62861  0.64936  1.0000
  H   H354      1.0  0.77899  0.64701  0.67630  1.0000
